Completed: ngspice -b -r /home/tien/.xschem/simulations/ADC_SAR.raw /home/tien/.xschem/simulations/ADC_SAR.spice
stderr:
Note: v4: dc value used for op instead of transient time=0 value.
Warning: singular matrix:  check node net8

Note: Starting dynamic gmin stepping
Warning: singular matrix:  check node vpositive

Warning: Dynamic gmin stepping failed
Note: Starting true gmin stepping
Warning: singular matrix:  check node vpositive

Warning: singular matrix:  check node vpositive

Warning: singular matrix:  check node vpositive

Warning: singular matrix:  check node vpositive

Warning: True gmin stepping failed
Note: Starting source stepping
Warning: source stepping failed
Note: Transient op started
Note: Transient op finished successfully
data:

Note: No compatibility mode selected!


Circuit: ** sch_path: /home/tien/gf180ex/adc_sar.sch

binary raw file "/home/tien/.xschem/simulations/ADC_SAR.raw"
Doing analysis at TEMP = 25.000000 and TNOM = 27.000000

Using SPARSE 1.3 as Direct Linear Solver
No. of Data Columns : 840  

Initial Transient Solution
--------------------------

Node                                   Voltage
----                                   -------
x1.net4                                3.29997
clk                                          0
vdd                                        3.3
x1.net3                                3.29997
x1.net2                                3.29988
x1.net7                            -1.0402e-06
x1.net1                                3.29988
x1.net6                           -9.12286e-06
vpositive                             0.425652
x1.net5                               0.223455
vnegative                             0.425652
nclk                                       3.3
valid                             -0.000367233
vocn                                       3.3
vocp                                   3.29982
x1.x3.net1                         -0.00011549
net8                                  0.424555
net19                                 0.424555
net2                                  0.424577
net1                                  0.424576
net23                                 0.424575
net22                                 0.424573
net21                                 0.424565
net7                                  0.424544
net6                                  0.424544
net5                                  0.424543
net4                                  0.424541
net3                                  0.424539
net13                                 0.424577
net12                                 0.424576
net11                                 0.424575
net10                                 0.424573
net9                                  0.424565
net18                                 0.424544
net17                                 0.424544
net16                                 0.424543
net15                                 0.424541
net14                                 0.424539
vinp                                       0.9
net20                                        0
vinn                                       1.5
x24.x1.net1                            1.14012
e                                          3.3
x24.x1.net3                            1.14029
x24.net1                              0.159794
x24.x1.net4                       -2.48016e-05
x24.net6                               3.30052
x24.x1.net5                       -4.30481e-05
x24.net7                               3.30052
x24.x1.net2                            3.29982
x24.net2                          -0.000907793
x24.x2.net1                           0.952851
x24.x2.net3                           0.952991
vcm                                       1.65
x24.x2.net4                           0.953014
x24.x2.net5                           0.953032
x24.net8                          -0.000864684
x24.x2.net2                            3.29973
x24.net3                          -0.000882381
x24.x3.net1                            1.15048
x24.x3.net3                             1.1507
vrefp                                      3.3
x24.x3.net4                            1.15091
x24.net9                          -0.000873722
x24.x3.net5                       -7.98334e-05
x24.x3.net2                            3.29979
x24.net4                          -0.000882029
x24.x4.net1                            1.21267
x24.x4.net3                            1.21285
vrefn                                        0
x24.x4.net4                         0.00166702
x24.x4.net5                       -0.000105548
x24.x4.net2                            3.29971
x24.net5                          -0.000824355
x24.x5.net4                            3.30055
x24.x5.net2                       -0.000398007
x24.x5.net1                            3.30028
x24.x5.net3                       -0.000246547
x24.x5.net5                        0.000281256
x24.x6.net2                            1.79341
x24.x6.net1                            3.29979
x24.x6.net3                            3.29951
x24.x6.net4                            3.29961
x24.x6.net5                            3.29994
s0                                           0
s1                                           0
x2.x1.net1                             1.14012
x2.x1.net3                             1.14029
x2.net1                               0.159794
x2.x1.net4                        -2.48016e-05
x2.net6                                3.30052
x2.x1.net5                        -4.30481e-05
x2.net7                                3.30052
x2.x1.net2                             3.29982
x2.net2                           -0.000907794
x2.x2.net1                            0.952851
x2.x2.net3                            0.952991
x2.x2.net4                            0.953014
x2.x2.net5                            0.953032
x2.net8                           -0.000864684
x2.x2.net2                             3.29973
x2.net3                           -0.000882381
x2.x3.net1                             1.15048
x2.x3.net3                              1.1507
x2.x3.net4                             1.15091
x2.net9                           -0.000873722
x2.x3.net5                        -7.98334e-05
x2.x3.net2                             3.29979
x2.net4                            -0.00088203
x2.x4.net1                             1.21267
x2.x4.net3                             1.21285
x2.x4.net4                          0.00166702
x2.x4.net5                        -0.000105548
x2.x4.net2                             3.29971
x2.net5                           -0.000824355
x2.x5.net4                             3.30055
x2.x5.net2                        -0.000398007
x2.x5.net1                             3.30028
x2.x5.net3                        -0.000246547
x2.x5.net5                         0.000281256
x2.x6.net2                             1.79341
x2.x6.net1                             3.29979
x2.x6.net3                             3.29951
x2.x6.net4                             3.29961
x2.x6.net5                             3.29994
x25.x1.net1                            3.30109
x25.x1.net3                         0.00803328
x25.net1                              0.153735
x25.x1.net4                       -2.51516e-05
x25.net6                               3.30051
x25.x1.net5                       -4.32743e-05
x25.net7                               3.30052
x25.x1.net2                            3.29982
x25.net2                          -0.000907742
x25.x2.net1                            3.30109
x25.x2.net3                           0.540903
x25.x2.net4                            0.54092
x25.x2.net5                           0.540949
x25.net8                          -0.000864959
x25.x2.net2                            3.29973
x25.net3                          -0.000882382
x25.x3.net1                            3.30109
x25.x3.net3                           0.614281
x25.x3.net4                           0.614284
x25.net9                          -0.000872185
x25.x3.net5                         -7.979e-05
x25.x3.net2                            3.29979
x25.net4                          -0.000882019
x25.x4.net1                            3.30109
x25.x4.net3                         0.00859333
x25.x4.net4                        4.52492e-06
x25.x4.net5                       -0.000118311
x25.x4.net2                            3.29971
x25.net5                          -0.000824347
x25.x5.net4                            3.30055
x25.x5.net2                       -0.000397758
x25.x5.net1                            3.30028
x25.x5.net3                       -0.000246434
x25.x5.net5                        0.000281248
x25.x6.net2                            1.79341
x25.x6.net1                            3.29979
x25.x6.net3                            3.29951
x25.x6.net4                            3.29961
x25.x6.net5                            3.29994
x26.x1.net1                            1.14012
x26.x1.net3                            1.14029
x26.net1                              0.159794
x26.x1.net4                       -2.48016e-05
x26.net6                               3.30052
x26.x1.net5                       -4.30481e-05
x26.net7                               3.30052
x26.x1.net2                            3.29982
x26.net2                          -0.000907797
x26.x2.net1                           0.952851
x26.x2.net3                           0.952991
x26.x2.net4                           0.953014
x26.x2.net5                           0.953032
x26.net8                          -0.000864684
x26.x2.net2                            3.29973
x26.net3                          -0.000882385
x26.x3.net1                            1.15048
x26.x3.net3                             1.1507
x26.x3.net4                            1.15091
x26.net9                          -0.000873722
x26.x3.net5                       -7.98334e-05
x26.x3.net2                            3.29979
x26.net4                          -0.000882033
x26.x4.net1                            1.21267
x26.x4.net3                            1.21285
x26.x4.net4                         0.00166702
x26.x4.net5                       -0.000105548
x26.x4.net2                            3.29971
x26.net5                          -0.000824355
x26.x5.net4                            3.30055
x26.x5.net2                       -0.000398007
x26.x5.net1                            3.30028
x26.x5.net3                       -0.000246547
x26.x5.net5                        0.000281256
x26.x6.net2                            1.79341
x26.x6.net1                            3.29979
x26.x6.net3                            3.29951
x26.x6.net4                            3.29961
x26.x6.net5                            3.29994
x27.x1.net1                            1.14012
x27.x1.net3                            1.14029
x27.net1                              0.159794
x27.x1.net4                       -2.48016e-05
x27.net6                               3.30052
x27.x1.net5                        -4.3048e-05
x27.net7                               3.30052
x27.x1.net2                            3.29982
x27.net2                          -0.000907799
x27.x2.net1                           0.952851
x27.x2.net3                           0.952991
x27.x2.net4                           0.953014
x27.x2.net5                           0.953032
x27.net8                          -0.000864684
x27.x2.net2                            3.29973
x27.net3                          -0.000882387
x27.x3.net1                            1.15048
x27.x3.net3                             1.1507
x27.x3.net4                            1.15091
x27.net9                          -0.000873722
x27.x3.net5                       -7.98334e-05
x27.x3.net2                            3.29979
x27.net4                          -0.000882035
x27.x4.net1                            1.21267
x27.x4.net3                            1.21285
x27.x4.net4                         0.00166702
x27.x4.net5                       -0.000105548
x27.x4.net2                            3.29971
x27.net5                          -0.000824355
x27.x5.net4                            3.30055
x27.x5.net2                       -0.000398007
x27.x5.net1                            3.30028
x27.x5.net3                       -0.000246547
x27.x5.net5                        0.000281256
x27.x6.net2                            1.79341
x27.x6.net1                            3.29979
x27.x6.net3                            3.29951
x27.x6.net4                            3.29961
x27.x6.net5                            3.29994
x28.x1.net1                            1.14012
x28.x1.net3                            1.14029
x28.net1                              0.159794
x28.x1.net4                       -2.48016e-05
x28.net6                               3.30052
x28.x1.net5                        -4.3048e-05
x28.net7                               3.30052
x28.x1.net2                            3.29982
x28.net2                          -0.000907796
x28.x2.net1                           0.952851
x28.x2.net3                           0.952991
x28.x2.net4                           0.953014
x28.x2.net5                           0.953032
x28.net8                          -0.000864684
x28.x2.net2                            3.29973
x28.net3                          -0.000882383
x28.x3.net1                            1.15048
x28.x3.net3                             1.1507
x28.x3.net4                            1.15091
x28.net9                          -0.000873722
x28.x3.net5                       -7.98334e-05
x28.x3.net2                            3.29979
x28.net4                          -0.000882032
x28.x4.net1                            1.21267
x28.x4.net3                            1.21285
x28.x4.net4                         0.00166702
x28.x4.net5                       -0.000105548
x28.x4.net2                            3.29971
x28.net5                          -0.000824355
x28.x5.net4                            3.30055
x28.x5.net2                       -0.000398007
x28.x5.net1                            3.30028
x28.x5.net3                       -0.000246547
x28.x5.net5                        0.000281256
x28.x6.net2                             1.7934
x28.x6.net1                            3.29979
x28.x6.net3                            3.29951
x28.x6.net4                            3.29961
x28.x6.net5                            3.29994
x29.x1.net1                            1.14012
x29.x1.net3                            1.14029
x29.net1                              0.159794
x29.x1.net4                       -2.48016e-05
x29.net6                               3.30052
x29.x1.net5                        -4.3048e-05
x29.net7                               3.30052
x29.x1.net2                            3.29982
x29.net2                          -0.000907796
x29.x2.net1                           0.952851
x29.x2.net3                           0.952991
x29.x2.net4                           0.953014
x29.x2.net5                           0.953032
x29.net8                          -0.000864684
x29.x2.net2                            3.29973
x29.net3                          -0.000882384
x29.x3.net1                            1.15048
x29.x3.net3                             1.1507
x29.x3.net4                            1.15091
x29.net9                          -0.000873722
x29.x3.net5                       -7.98334e-05
x29.x3.net2                            3.29979
x29.net4                          -0.000882032
x29.x4.net1                            1.21267
x29.x4.net3                            1.21285
x29.x4.net4                         0.00166702
x29.x4.net5                       -0.000105548
x29.x4.net2                            3.29971
x29.net5                          -0.000824355
x29.x5.net4                            3.30055
x29.x5.net2                       -0.000398007
x29.x5.net1                            3.30028
x29.x5.net3                       -0.000246547
x29.x5.net5                        0.000281256
x29.x6.net2                             1.7934
x29.x6.net1                            3.29979
x29.x6.net3                            3.29951
x29.x6.net4                            3.29961
x29.x6.net5                            3.29994
x30.x1.net1                            1.14012
x30.x1.net3                            1.14029
x30.net1                              0.159794
x30.x1.net4                       -2.48016e-05
x30.net6                               3.30052
x30.x1.net5                        -4.3048e-05
x30.net7                               3.30052
x30.x1.net2                            3.29982
x30.net2                          -0.000907796
x30.x2.net1                           0.952851
x30.x2.net3                           0.952991
x30.x2.net4                           0.953014
x30.x2.net5                           0.953032
x30.net8                          -0.000864684
x30.x2.net2                            3.29973
x30.net3                          -0.000882384
x30.x3.net1                            1.15048
x30.x3.net3                             1.1507
x30.x3.net4                            1.15091
x30.net9                          -0.000873722
x30.x3.net5                       -7.98334e-05
x30.x3.net2                            3.29979
x30.net4                          -0.000882032
x30.x4.net1                            1.21267
x30.x4.net3                            1.21285
x30.x4.net4                         0.00166702
x30.x4.net5                       -0.000105548
x30.x4.net2                            3.29971
x30.net5                          -0.000824355
x30.x5.net4                            3.30055
x30.x5.net2                       -0.000398007
x30.x5.net1                            3.30028
x30.x5.net3                       -0.000246547
x30.x5.net5                        0.000281256
x30.x6.net2                             1.7934
x30.x6.net1                            3.29979
x30.x6.net3                            3.29951
x30.x6.net4                            3.29961
x30.x6.net5                            3.29994
x31.x1.net1                            1.14012
x31.x1.net3                            1.14029
x31.net1                              0.159794
x31.x1.net4                       -2.48016e-05
x31.net6                               3.30052
x31.x1.net5                        -4.3048e-05
x31.net7                               3.30052
x31.x1.net2                            3.29982
x31.net2                          -0.000907796
x31.x2.net1                           0.952851
x31.x2.net3                           0.952991
x31.x2.net4                           0.953014
x31.x2.net5                           0.953032
x31.net8                          -0.000864684
x31.x2.net2                            3.29973
x31.net3                          -0.000882384
x31.x3.net1                            1.15048
x31.x3.net3                             1.1507
x31.x3.net4                            1.15091
x31.net9                          -0.000873722
x31.x3.net5                       -7.98334e-05
x31.x3.net2                            3.29979
x31.net4                          -0.000882032
x31.x4.net1                            1.21267
x31.x4.net3                            1.21285
x31.x4.net4                         0.00166702
x31.x4.net5                       -0.000105548
x31.x4.net2                            3.29971
x31.net5                          -0.000824355
x31.x5.net4                            3.30055
x31.x5.net2                       -0.000398007
x31.x5.net1                            3.30028
x31.x5.net3                       -0.000246547
x31.x5.net5                        0.000281256
x31.x6.net2                             1.7934
x31.x6.net1                            3.29979
x31.x6.net3                            3.29951
x31.x6.net4                            3.29961
x31.x6.net5                            3.29994
x32.x1.net1                            1.14012
x32.x1.net3                            1.14029
x32.net1                              0.159794
x32.x1.net4                       -2.48016e-05
x32.net6                               3.30052
x32.x1.net5                        -4.3048e-05
x32.net7                               3.30052
x32.x1.net2                            3.29982
x32.net2                          -0.000907796
x32.x2.net1                           0.952851
x32.x2.net3                           0.952991
x32.x2.net4                           0.953014
x32.x2.net5                           0.953032
x32.net8                          -0.000864684
x32.x2.net2                            3.29973
x32.net3                          -0.000882383
x32.x3.net1                            1.15048
x32.x3.net3                             1.1507
x32.x3.net4                            1.15091
x32.net9                          -0.000873722
x32.x3.net5                       -7.98334e-05
x32.x3.net2                            3.29979
x32.net4                          -0.000882031
x32.x4.net1                            1.21267
x32.x4.net3                            1.21285
x32.x4.net4                         0.00166702
x32.x4.net5                       -0.000105548
x32.x4.net2                            3.29971
x32.net5                          -0.000824355
x32.x5.net4                            3.30055
x32.x5.net2                       -0.000398007
x32.x5.net1                            3.30028
x32.x5.net3                       -0.000246547
x32.x5.net5                        0.000281256
x32.x6.net2                             1.7934
x32.x6.net1                            3.29979
x32.x6.net3                            3.29951
x32.x6.net4                            3.29961
x32.x6.net5                            3.29994
x3.x1.net1                             1.14012
x3.x1.net3                             1.14029
x3.net1                               0.159794
x3.x1.net4                        -2.48123e-05
x3.net6                                3.30052
x3.x1.net5                        -4.30547e-05
x3.net7                                3.30052
x3.x1.net2                             3.29982
x3.net2                           -0.000907794
x3.x2.net1                            0.952851
x3.x2.net3                            0.952991
x3.x2.net4                            0.953014
x3.x2.net5                            0.953032
x3.net8                           -0.000864684
x3.x2.net2                             3.29973
x3.net3                           -0.000882381
x3.x3.net1                             1.15048
x3.x3.net3                              1.1507
x3.x3.net4                             1.15091
x3.net9                           -0.000873722
x3.x3.net5                        -7.98334e-05
x3.x3.net2                             3.29979
x3.net4                           -0.000882029
x3.x4.net1                             1.21267
x3.x4.net3                             1.21285
x3.x4.net4                          0.00166702
x3.x4.net5                        -0.000105548
x3.x4.net2                             3.29971
x3.net5                           -0.000824355
x3.x6.net2                             1.79341
x3.x6.net1                             3.29979
x3.x6.net3                             3.29951
x3.x6.net4                             3.29961
x3.x6.net5                             3.29994
x3.x11.net4                            3.30055
x3.x11.net2                       -0.000409731
x3.x11.net1                            3.30028
x3.x11.net3                       -0.000251438
x3.x11.net5                        0.000282108
x33.x1.net1                            1.14012
x33.x1.net3                            1.14029
x33.net1                              0.159794
x33.x1.net4                       -2.48123e-05
x33.net6                               3.30052
x33.x1.net5                       -4.30547e-05
x33.net7                               3.30052
x33.x1.net2                            3.29982
x33.net2                          -0.000907795
x33.x2.net1                           0.952851
x33.x2.net3                           0.952991
x33.x2.net4                           0.953014
x33.x2.net5                           0.953032
x33.net8                          -0.000864684
x33.x2.net2                            3.29973
x33.net3                          -0.000882381
x33.x3.net1                            1.15048
x33.x3.net3                             1.1507
x33.x3.net4                            1.15091
x33.net9                          -0.000873722
x33.x3.net5                       -7.98334e-05
x33.x3.net2                            3.29979
x33.net4                           -0.00088203
x33.x4.net1                            1.21267
x33.x4.net3                            1.21285
x33.x4.net4                         0.00166702
x33.x4.net5                       -0.000105548
x33.x4.net2                            3.29971
x33.net5                          -0.000824355
x33.x6.net2                            1.79341
x33.x6.net1                            3.29979
x33.x6.net3                            3.29951
x33.x6.net4                            3.29961
x33.x6.net5                            3.29994
x33.x11.net4                           3.30055
x33.x11.net2                      -0.000409731
x33.x11.net1                           3.30028
x33.x11.net3                      -0.000251438
x33.x11.net5                       0.000282108
x34.x1.net1                            1.14012
x34.x1.net3                            1.14029
x34.net1                              0.159794
x34.x1.net4                       -2.48123e-05
x34.net6                               3.30052
x34.x1.net5                       -4.30547e-05
x34.net7                               3.30052
x34.x1.net2                            3.29982
x34.net2                          -0.000907796
x34.x2.net1                           0.952851
x34.x2.net3                           0.952991
x34.x2.net4                           0.953014
x34.x2.net5                           0.953032
x34.net8                          -0.000864684
x34.x2.net2                            3.29973
x34.net3                          -0.000882383
x34.x3.net1                            1.15048
x34.x3.net3                             1.1507
x34.x3.net4                            1.15091
x34.net9                          -0.000873722
x34.x3.net5                       -7.98334e-05
x34.x3.net2                            3.29979
x34.net4                          -0.000882031
x34.x4.net1                            1.21267
x34.x4.net3                            1.21285
x34.x4.net4                         0.00166702
x34.x4.net5                       -0.000105548
x34.x4.net2                            3.29971
x34.net5                          -0.000824355
x34.x6.net2                            1.79341
x34.x6.net1                            3.29979
x34.x6.net3                            3.29951
x34.x6.net4                            3.29961
x34.x6.net5                            3.29994
x34.x11.net4                           3.30055
x34.x11.net2                      -0.000409731
x34.x11.net1                           3.30028
x34.x11.net3                      -0.000251438
x34.x11.net5                       0.000282108
x35.x1.net1                            1.14012
x35.x1.net3                            1.14029
x35.net1                              0.159794
x35.x1.net4                       -2.48123e-05
x35.net6                               3.30052
x35.x1.net5                       -4.30547e-05
x35.net7                               3.30052
x35.x1.net2                            3.29982
x35.net2                          -0.000907798
x35.x2.net1                           0.952851
x35.x2.net3                           0.952991
x35.x2.net4                           0.953014
x35.x2.net5                           0.953032
x35.net8                          -0.000864684
x35.x2.net2                            3.29973
x35.net3                          -0.000882385
x35.x3.net1                            1.15048
x35.x3.net3                             1.1507
x35.x3.net4                            1.15091
x35.net9                          -0.000873722
x35.x3.net5                       -7.98334e-05
x35.x3.net2                            3.29979
x35.net4                          -0.000882033
x35.x4.net1                            1.21267
x35.x4.net3                            1.21285
x35.x4.net4                         0.00166702
x35.x4.net5                       -0.000105548
x35.x4.net2                            3.29971
x35.net5                          -0.000824355
x35.x6.net2                            1.79341
x35.x6.net1                            3.29979
x35.x6.net3                            3.29951
x35.x6.net4                            3.29961
x35.x6.net5                            3.29994
x35.x11.net4                           3.30055
x35.x11.net2                      -0.000409731
x35.x11.net1                           3.30028
x35.x11.net3                      -0.000251438
x35.x11.net5                       0.000282108
x36.x1.net1                            1.14012
x36.x1.net3                            1.14029
x36.net1                              0.159794
x36.x1.net4                       -2.48122e-05
x36.net6                               3.30052
x36.x1.net5                       -4.30547e-05
x36.net7                               3.30052
x36.x1.net2                            3.29982
x36.net2                            -0.0009078
x36.x2.net1                           0.952851
x36.x2.net3                           0.952991
x36.x2.net4                           0.953014
x36.x2.net5                           0.953032
x36.net8                          -0.000864684
x36.x2.net2                            3.29973
x36.net3                          -0.000882387
x36.x3.net1                            1.15048
x36.x3.net3                             1.1507
x36.x3.net4                            1.15091
x36.net9                          -0.000873722
x36.x3.net5                       -7.98334e-05
x36.x3.net2                            3.29979
x36.net4                          -0.000882035
x36.x4.net1                            1.21267
x36.x4.net3                            1.21285
x36.x4.net4                         0.00166702
x36.x4.net5                       -0.000105548
x36.x4.net2                            3.29971
x36.net5                          -0.000824355
x36.x6.net2                            1.79341
x36.x6.net1                            3.29979
x36.x6.net3                            3.29951
x36.x6.net4                            3.29961
x36.x6.net5                            3.29994
x36.x11.net4                           3.30055
x36.x11.net2                      -0.000409731
x36.x11.net1                           3.30028
x36.x11.net3                      -0.000251438
x36.x11.net5                       0.000282108
x37.x1.net1                            1.14012
x37.x1.net3                            1.14029
x37.net1                              0.159794
x37.x1.net4                       -2.48122e-05
x37.net6                               3.30052
x37.x1.net5                       -4.30547e-05
x37.net7                               3.30052
x37.x1.net2                            3.29982
x37.net2                          -0.000907797
x37.x2.net1                           0.952851
x37.x2.net3                           0.952991
x37.x2.net4                           0.953014
x37.x2.net5                           0.953032
x37.net8                          -0.000864684
x37.x2.net2                            3.29973
x37.net3                          -0.000882383
x37.x3.net1                            1.15048
x37.x3.net3                             1.1507
x37.x3.net4                            1.15091
x37.net9                          -0.000873722
x37.x3.net5                       -7.98334e-05
x37.x3.net2                            3.29979
x37.net4                          -0.000882032
x37.x4.net1                            1.21267
x37.x4.net3                            1.21285
x37.x4.net4                         0.00166702
x37.x4.net5                       -0.000105548
x37.x4.net2                            3.29971
x37.net5                          -0.000824355
x37.x6.net2                             1.7934
x37.x6.net1                            3.29979
x37.x6.net3                            3.29951
x37.x6.net4                            3.29961
x37.x6.net5                            3.29994
x37.x11.net4                           3.30055
x37.x11.net2                      -0.000409731
x37.x11.net1                           3.30028
x37.x11.net3                      -0.000251438
x37.x11.net5                       0.000282108
x38.x1.net1                            1.14012
x38.x1.net3                            1.14029
x38.net1                              0.159794
x38.x1.net4                       -2.48122e-05
x38.net6                               3.30052
x38.x1.net5                       -4.30547e-05
x38.net7                               3.30052
x38.x1.net2                            3.29982
x38.net2                          -0.000907797
x38.x2.net1                           0.952851
x38.x2.net3                           0.952991
x38.x2.net4                           0.953014
x38.x2.net5                           0.953032
x38.net8                          -0.000864684
x38.x2.net2                            3.29973
x38.net3                          -0.000882384
x38.x3.net1                            1.15048
x38.x3.net3                             1.1507
x38.x3.net4                            1.15091
x38.net9                          -0.000873722
x38.x3.net5                       -7.98334e-05
x38.x3.net2                            3.29979
x38.net4                          -0.000882032
x38.x4.net1                            1.21267
x38.x4.net3                            1.21285
x38.x4.net4                         0.00166702
x38.x4.net5                       -0.000105548
x38.x4.net2                            3.29971
x38.net5                          -0.000824355
x38.x6.net2                             1.7934
x38.x6.net1                            3.29979
x38.x6.net3                            3.29951
x38.x6.net4                            3.29961
x38.x6.net5                            3.29994
x38.x11.net4                           3.30055
x38.x11.net2                      -0.000409731
x38.x11.net1                           3.30028
x38.x11.net3                      -0.000251438
x38.x11.net5                       0.000282108
x39.x1.net1                            1.14012
x39.x1.net3                            1.14029
x39.net1                              0.159794
x39.x1.net4                       -2.48122e-05
x39.net6                               3.30052
x39.x1.net5                       -4.30547e-05
x39.net7                               3.30052
x39.x1.net2                            3.29982
x39.net2                          -0.000907798
x39.x2.net1                           0.952851
x39.x2.net3                           0.952991
x39.x2.net4                           0.953014
x39.x2.net5                           0.953032
x39.net8                          -0.000864684
x39.x2.net2                            3.29973
x39.net3                          -0.000882384
x39.x3.net1                            1.15048
x39.x3.net3                             1.1507
x39.x3.net4                            1.15091
x39.net9                          -0.000873722
x39.x3.net5                       -7.98334e-05
x39.x3.net2                            3.29979
x39.net4                          -0.000882032
x39.x4.net1                            1.21267
x39.x4.net3                            1.21285
x39.x4.net4                         0.00166702
x39.x4.net5                       -0.000105548
x39.x4.net2                            3.29971
x39.net5                          -0.000824355
x39.x6.net2                             1.7934
x39.x6.net1                            3.29979
x39.x6.net3                            3.29951
x39.x6.net4                            3.29961
x39.x6.net5                            3.29994
x39.x11.net4                           3.30055
x39.x11.net2                      -0.000409731
x39.x11.net1                           3.30028
x39.x11.net3                      -0.000251438
x39.x11.net5                       0.000282108
x40.x1.net1                            1.14012
x40.x1.net3                            1.14029
x40.net1                              0.159794
x40.x1.net4                       -2.48122e-05
x40.net6                               3.30052
x40.x1.net5                       -4.30547e-05
x40.net7                               3.30052
x40.x1.net2                            3.29982
x40.net2                          -0.000907798
x40.x2.net1                           0.952851
x40.x2.net3                           0.952991
x40.x2.net4                           0.953014
x40.x2.net5                           0.953032
x40.net8                          -0.000864684
x40.x2.net2                            3.29973
x40.net3                          -0.000882384
x40.x3.net1                            1.15048
x40.x3.net3                             1.1507
x40.x3.net4                            1.15091
x40.net9                          -0.000873722
x40.x3.net5                       -7.98334e-05
x40.x3.net2                            3.29979
x40.net4                          -0.000882032
x40.x4.net1                            1.21267
x40.x4.net3                            1.21285
x40.x4.net4                         0.00166702
x40.x4.net5                       -0.000105548
x40.x4.net2                            3.29971
x40.net5                          -0.000824355
x40.x6.net2                             1.7934
x40.x6.net1                            3.29979
x40.x6.net3                            3.29951
x40.x6.net4                            3.29961
x40.x6.net5                            3.29994
x40.x11.net4                           3.30055
x40.x11.net2                      -0.000409731
x40.x11.net1                           3.30028
x40.x11.net3                      -0.000251438
x40.x11.net5                       0.000282108
x41.x1.net1                            1.14012
x41.x1.net3                            1.14029
x41.net1                              0.159794
x41.x1.net4                       -2.48122e-05
x41.net6                               3.30052
x41.x1.net5                       -4.30547e-05
x41.net7                               3.30052
x41.x1.net2                            3.29982
x41.net2                          -0.000907797
x41.x2.net1                           0.952851
x41.x2.net3                           0.952991
x41.x2.net4                           0.953014
x41.x2.net5                           0.953032
x41.net8                          -0.000864684
x41.x2.net2                            3.29973
x41.net3                          -0.000882383
x41.x3.net1                            1.15048
x41.x3.net3                             1.1507
x41.x3.net4                            1.15091
x41.net9                          -0.000873722
x41.x3.net5                       -7.98334e-05
x41.x3.net2                            3.29979
x41.net4                          -0.000882031
x41.x4.net1                            1.21267
x41.x4.net3                            1.21285
x41.x4.net4                         0.00166702
x41.x4.net5                       -0.000105548
x41.x4.net2                            3.29971
x41.net5                          -0.000824355
x41.x6.net2                             1.7934
x41.x6.net1                            3.29979
x41.x6.net3                            3.29951
x41.x6.net4                            3.29961
x41.x6.net5                            3.29994
x41.x11.net4                           3.30055
x41.x11.net2                      -0.000409731
x41.x11.net1                           3.30028
x41.x11.net3                      -0.000251438
x41.x11.net5                       0.000282108
v9#branch                          1.85197e-07
v8#branch                         -1.65289e-06
v7#branch                         -1.67412e-06
v6#branch                          1.63883e-07
v3#branch                          1.22117e-07
v2#branch                         -1.03837e-07
v1#branch                           8.0354e-09
v5#branch                          8.18002e-09
v4#branch                          8.18002e-09
v13#branch                        -4.39845e-08
v12#branch                        -3.58282e-07
v11#branch                         -0.00237162

 Reference value :  0.00000e+00
 Reference value :  2.28000e-11
 Reference value :  8.28000e-11
 Reference value :  1.52800e-10
 Reference value :  2.12800e-10
 Reference value :  2.82800e-10
 Reference value :  3.52800e-10
 Reference value :  3.92800e-10
 Reference value :  4.22800e-10
 Reference value :  4.92800e-10
 Reference value :  5.35000e-10
 Reference value :  6.05000e-10
 Reference value :  6.75000e-10
 Reference value :  7.65000e-10
 Reference value :  8.75000e-10
 Reference value :  9.85000e-10
 Reference value :  1.09500e-09
 Reference value :  1.22500e-09
 Reference value :  1.36500e-09
 Reference value :  1.50500e-09
 Reference value :  1.64500e-09
 Reference value :  1.78500e-09
 Reference value :  1.92500e-09
 Reference value :  2.05500e-09
 Reference value :  2.18500e-09
 Reference value :  2.30500e-09
 Reference value :  2.43500e-09
 Reference value :  2.57500e-09
 Reference value :  2.70500e-09
 Reference value :  2.84500e-09
 Reference value :  2.97500e-09
 Reference value :  3.11500e-09
 Reference value :  3.25500e-09
 Reference value :  3.39500e-09
 Reference value :  3.53500e-09
 Reference value :  3.66500e-09
 Reference value :  3.79500e-09
 Reference value :  3.93500e-09
 Reference value :  4.07500e-09
 Reference value :  4.21500e-09
 Reference value :  4.35500e-09
 Reference value :  4.49500e-09
 Reference value :  4.63500e-09
 Reference value :  4.76500e-09
 Reference value :  4.90500e-09
 Reference value :  5.03500e-09
 Reference value :  5.16500e-09
 Reference value :  5.29500e-09
 Reference value :  5.42500e-09
 Reference value :  5.56500e-09
 Reference value :  5.69500e-09
 Reference value :  5.82500e-09
 Reference value :  5.95500e-09
 Reference value :  6.09500e-09
 Reference value :  6.22500e-09
 Reference value :  6.35500e-09
 Reference value :  6.48500e-09
 Reference value :  6.62500e-09
 Reference value :  6.76500e-09
 Reference value :  6.89500e-09
 Reference value :  7.02500e-09
 Reference value :  7.15500e-09
 Reference value :  7.28500e-09
 Reference value :  7.42500e-09
 Reference value :  7.55500e-09
 Reference value :  7.69500e-09
 Reference value :  7.82500e-09
 Reference value :  7.96500e-09
 Reference value :  8.09500e-09
 Reference value :  8.22500e-09
 Reference value :  8.35500e-09
 Reference value :  8.48500e-09
 Reference value :  8.61500e-09
 Reference value :  8.75500e-09
 Reference value :  8.89500e-09
 Reference value :  9.02500e-09
 Reference value :  9.15500e-09
 Reference value :  9.28500e-09
 Reference value :  9.42500e-09
 Reference value :  9.56500e-09
 Reference value :  9.69500e-09
 Reference value :  9.83500e-09
 Reference value :  9.97500e-09
 Reference value :  1.01150e-08
 Reference value :  1.02450e-08
 Reference value :  1.03750e-08
 Reference value :  1.05050e-08
 Reference value :  1.06350e-08
 Reference value :  1.07650e-08
 Reference value :  1.08950e-08
 Reference value :  1.10250e-08
 Reference value :  1.11550e-08
 Reference value :  1.12850e-08
 Reference value :  1.14150e-08
 Reference value :  1.15450e-08
 Reference value :  1.16750e-08
 Reference value :  1.18150e-08
 Reference value :  1.19450e-08
 Reference value :  1.20750e-08
 Reference value :  1.22050e-08
 Reference value :  1.23350e-08
 Reference value :  1.24650e-08
 Reference value :  1.25950e-08
 Reference value :  1.27250e-08
 Reference value :  1.28550e-08
 Reference value :  1.29850e-08
 Reference value :  1.31150e-08
 Reference value :  1.32450e-08
 Reference value :  1.33850e-08
 Reference value :  1.35150e-08
 Reference value :  1.36450e-08
 Reference value :  1.37750e-08
 Reference value :  1.39050e-08
 Reference value :  1.40350e-08
 Reference value :  1.41750e-08
 Reference value :  1.43050e-08
 Reference value :  1.44350e-08
 Reference value :  1.45650e-08
 Reference value :  1.47050e-08
 Reference value :  1.48350e-08
 Reference value :  1.49650e-08
 Reference value :  1.51050e-08
 Reference value :  1.52350e-08
 Reference value :  1.53750e-08
 Reference value :  1.55050e-08
 Reference value :  1.56350e-08
 Reference value :  1.57650e-08
 Reference value :  1.59050e-08
 Reference value :  1.60450e-08
 Reference value :  1.61750e-08
 Reference value :  1.63150e-08
 Reference value :  1.64450e-08
 Reference value :  1.65750e-08
 Reference value :  1.67150e-08
 Reference value :  1.68550e-08
 Reference value :  1.69950e-08
 Reference value :  1.71250e-08
 Reference value :  1.72650e-08
 Reference value :  1.73950e-08
 Reference value :  1.75350e-08
 Reference value :  1.76750e-08
 Reference value :  1.78050e-08
 Reference value :  1.79350e-08
 Reference value :  1.80650e-08
 Reference value :  1.81950e-08
 Reference value :  1.83350e-08
 Reference value :  1.84650e-08
 Reference value :  1.85950e-08
 Reference value :  1.87250e-08
 Reference value :  1.88550e-08
 Reference value :  1.89950e-08
 Reference value :  1.91250e-08
 Reference value :  1.92550e-08
 Reference value :  1.93850e-08
 Reference value :  1.95250e-08
 Reference value :  1.96550e-08
 Reference value :  1.97950e-08
 Reference value :  1.99350e-08
 Reference value :  2.00650e-08
 Reference value :  2.02050e-08
 Reference value :  2.03450e-08
 Reference value :  2.04850e-08
 Reference value :  2.06150e-08
 Reference value :  2.07450e-08
 Reference value :  2.08750e-08
 Reference value :  2.10150e-08
 Reference value :  2.11450e-08
 Reference value :  2.12750e-08
 Reference value :  2.14050e-08
 Reference value :  2.15350e-08
 Reference value :  2.16650e-08
 Reference value :  2.17950e-08
 Reference value :  2.19250e-08
 Reference value :  2.20550e-08
 Reference value :  2.21950e-08
 Reference value :  2.23150e-08
 Reference value :  2.24450e-08
 Reference value :  2.25750e-08
 Reference value :  2.27050e-08
 Reference value :  2.28450e-08
 Reference value :  2.29750e-08
 Reference value :  2.31050e-08
 Reference value :  2.32350e-08
 Reference value :  2.33650e-08
 Reference value :  2.34950e-08
 Reference value :  2.36250e-08
 Reference value :  2.37650e-08
 Reference value :  2.39050e-08
 Reference value :  2.40350e-08
 Reference value :  2.41750e-08
 Reference value :  2.43050e-08
 Reference value :  2.44450e-08
 Reference value :  2.45750e-08
 Reference value :  2.47150e-08
 Reference value :  2.48450e-08
 Reference value :  2.49750e-08
 Reference value :  2.51050e-08
 Reference value :  2.52350e-08
 Reference value :  2.53650e-08
 Reference value :  2.54950e-08
 Reference value :  2.56250e-08
 Reference value :  2.57550e-08
 Reference value :  2.58950e-08
 Reference value :  2.60350e-08
 Reference value :  2.61650e-08
 Reference value :  2.63050e-08
 Reference value :  2.64450e-08
 Reference value :  2.65750e-08
 Reference value :  2.67050e-08
 Reference value :  2.68350e-08
 Reference value :  2.69650e-08
 Reference value :  2.70950e-08
 Reference value :  2.72350e-08
 Reference value :  2.73650e-08
 Reference value :  2.74950e-08
 Reference value :  2.76250e-08
 Reference value :  2.77550e-08
 Reference value :  2.78850e-08
 Reference value :  2.80250e-08
 Reference value :  2.81650e-08
 Reference value :  2.83050e-08
 Reference value :  2.84450e-08
 Reference value :  2.85750e-08
 Reference value :  2.87050e-08
 Reference value :  2.88350e-08
 Reference value :  2.89650e-08
 Reference value :  2.90950e-08
 Reference value :  2.92350e-08
 Reference value :  2.93750e-08
 Reference value :  2.95050e-08
 Reference value :  2.96350e-08
 Reference value :  2.97750e-08
 Reference value :  2.99050e-08
 Reference value :  3.00450e-08
 Reference value :  3.01850e-08
 Reference value :  3.03150e-08
 Reference value :  3.04450e-08
 Reference value :  3.05750e-08
 Reference value :  3.07150e-08
 Reference value :  3.08450e-08
 Reference value :  3.09750e-08
 Reference value :  3.11050e-08
 Reference value :  3.12350e-08
 Reference value :  3.13550e-08
 Reference value :  3.14850e-08
 Reference value :  3.16150e-08
 Reference value :  3.17550e-08
 Reference value :  3.18950e-08
 Reference value :  3.20250e-08
 Reference value :  3.21550e-08
 Reference value :  3.22850e-08
 Reference value :  3.24150e-08
 Reference value :  3.25550e-08
 Reference value :  3.26950e-08
 Reference value :  3.28350e-08
 Reference value :  3.29750e-08
 Reference value :  3.31150e-08
 Reference value :  3.32450e-08
 Reference value :  3.33850e-08
 Reference value :  3.35250e-08
 Reference value :  3.36650e-08
 Reference value :  3.38050e-08
 Reference value :  3.39450e-08
 Reference value :  3.40850e-08
 Reference value :  3.42250e-08
 Reference value :  3.43550e-08
 Reference value :  3.44950e-08
 Reference value :  3.46350e-08
 Reference value :  3.47750e-08
 Reference value :  3.49050e-08
 Reference value :  3.50450e-08
 Reference value :  3.51750e-08
 Reference value :  3.53150e-08
 Reference value :  3.54450e-08
 Reference value :  3.55850e-08
 Reference value :  3.57250e-08
 Reference value :  3.58650e-08
 Reference value :  3.60050e-08
 Reference value :  3.61350e-08
 Reference value :  3.62750e-08
 Reference value :  3.64150e-08
 Reference value :  3.65550e-08
 Reference value :  3.66950e-08
 Reference value :  3.68350e-08
 Reference value :  3.69750e-08
 Reference value :  3.71150e-08
 Reference value :  3.72550e-08
 Reference value :  3.73950e-08
 Reference value :  3.75350e-08
 Reference value :  3.76750e-08
 Reference value :  3.78150e-08
 Reference value :  3.79450e-08
 Reference value :  3.80850e-08
 Reference value :  3.82150e-08
 Reference value :  3.83450e-08
 Reference value :  3.84850e-08
 Reference value :  3.86250e-08
 Reference value :  3.87550e-08
 Reference value :  3.88850e-08
 Reference value :  3.90250e-08
 Reference value :  3.91550e-08
 Reference value :  3.92850e-08
 Reference value :  3.94250e-08
 Reference value :  3.95550e-08
 Reference value :  3.96950e-08
 Reference value :  3.98350e-08
 Reference value :  3.99650e-08
 Reference value :  4.00950e-08
 Reference value :  4.02250e-08
 Reference value :  4.03550e-08
 Reference value :  4.04950e-08
 Reference value :  4.05750e-08
 Reference value :  4.06750e-08
 Reference value :  4.07750e-08
 Reference value :  4.08750e-08
 Reference value :  4.09750e-08
 Reference value :  4.10450e-08
 Reference value :  4.11650e-08
 Reference value :  4.13050e-08
 Reference value :  4.14350e-08
 Reference value :  4.15650e-08
 Reference value :  4.17050e-08
 Reference value :  4.18450e-08
 Reference value :  4.19850e-08
 Reference value :  4.20650e-08
 Reference value :  4.21950e-08
 Reference value :  4.23350e-08
 Reference value :  4.24650e-08
 Reference value :  4.26050e-08
 Reference value :  4.27450e-08
 Reference value :  4.28750e-08
 Reference value :  4.30150e-08
 Reference value :  4.31450e-08
 Reference value :  4.32750e-08
 Reference value :  4.34050e-08
 Reference value :  4.35450e-08
 Reference value :  4.36850e-08
 Reference value :  4.38150e-08
 Reference value :  4.39550e-08
 Reference value :  4.40850e-08
 Reference value :  4.42250e-08
 Reference value :  4.43550e-08
 Reference value :  4.44950e-08
 Reference value :  4.46250e-08
 Reference value :  4.47550e-08
 Reference value :  4.48850e-08
 Reference value :  4.50150e-08
 Reference value :  4.51450e-08
 Reference value :  4.52750e-08
 Reference value :  4.54050e-08
 Reference value :  4.55350e-08
 Reference value :  4.56650e-08
 Reference value :  4.57950e-08
 Reference value :  4.59250e-08
 Reference value :  4.60550e-08
 Reference value :  4.61850e-08
 Reference value :  4.63150e-08
 Reference value :  4.64450e-08
 Reference value :  4.65750e-08
 Reference value :  4.67150e-08
 Reference value :  4.68450e-08
 Reference value :  4.69750e-08
 Reference value :  4.71050e-08
 Reference value :  4.72350e-08
 Reference value :  4.73650e-08
 Reference value :  4.75050e-08
 Reference value :  4.76350e-08
 Reference value :  4.77650e-08
 Reference value :  4.78950e-08
 Reference value :  4.80250e-08
 Reference value :  4.81550e-08
 Reference value :  4.82850e-08
 Reference value :  4.84150e-08
 Reference value :  4.85450e-08
 Reference value :  4.86750e-08
 Reference value :  4.88150e-08
 Reference value :  4.89550e-08
 Reference value :  4.90850e-08
 Reference value :  4.92150e-08
 Reference value :  4.93550e-08
 Reference value :  4.94850e-08
 Reference value :  4.96150e-08
 Reference value :  4.97450e-08
 Reference value :  4.98750e-08
 Reference value :  5.00050e-08
 Reference value :  5.01350e-08
 Reference value :  5.02650e-08
 Reference value :  5.03950e-08
 Reference value :  5.05250e-08
 Reference value :  5.06650e-08
 Reference value :  5.08050e-08
 Reference value :  5.09350e-08
 Reference value :  5.10650e-08
 Reference value :  5.11950e-08
 Reference value :  5.13250e-08
 Reference value :  5.14650e-08
 Reference value :  5.15950e-08
 Reference value :  5.17250e-08
 Reference value :  5.18550e-08
 Reference value :  5.19950e-08
 Reference value :  5.21250e-08
 Reference value :  5.22550e-08
 Reference value :  5.23950e-08
 Reference value :  5.25250e-08
 Reference value :  5.26550e-08
 Reference value :  5.27850e-08
 Reference value :  5.29150e-08
 Reference value :  5.30450e-08
 Reference value :  5.31750e-08
 Reference value :  5.33050e-08
 Reference value :  5.34350e-08
 Reference value :  5.35650e-08
 Reference value :  5.36950e-08
 Reference value :  5.38150e-08
 Reference value :  5.39450e-08
 Reference value :  5.40750e-08
 Reference value :  5.42050e-08
 Reference value :  5.43350e-08
 Reference value :  5.44650e-08
 Reference value :  5.46050e-08
 Reference value :  5.47450e-08
 Reference value :  5.48850e-08
 Reference value :  5.50150e-08
 Reference value :  5.51450e-08
 Reference value :  5.52750e-08
 Reference value :  5.54150e-08
 Reference value :  5.55550e-08
 Reference value :  5.56950e-08
 Reference value :  5.58350e-08
 Reference value :  5.59750e-08
 Reference value :  5.61050e-08
 Reference value :  5.62450e-08
 Reference value :  5.63850e-08
 Reference value :  5.65250e-08
 Reference value :  5.66650e-08
 Reference value :  5.68050e-08
 Reference value :  5.69450e-08
 Reference value :  5.70850e-08
 Reference value :  5.72250e-08
 Reference value :  5.73650e-08
 Reference value :  5.75050e-08
 Reference value :  5.76450e-08
 Reference value :  5.77850e-08
 Reference value :  5.79150e-08
 Reference value :  5.80550e-08
 Reference value :  5.81950e-08
 Reference value :  5.83350e-08
 Reference value :  5.84750e-08
 Reference value :  5.86150e-08
 Reference value :  5.87450e-08
 Reference value :  5.88750e-08
 Reference value :  5.89950e-08
 Reference value :  5.91250e-08
 Reference value :  5.92650e-08
 Reference value :  5.94050e-08
 Reference value :  5.95350e-08
 Reference value :  5.96650e-08
 Reference value :  5.97950e-08
 Reference value :  5.99350e-08
 Reference value :  6.00650e-08
 Reference value :  6.02050e-08
 Reference value :  6.03350e-08
 Reference value :  6.04650e-08
 Reference value :  6.05950e-08
 Reference value :  6.07350e-08
 Reference value :  6.08750e-08
 Reference value :  6.10050e-08
 Reference value :  6.11350e-08
 Reference value :  6.12650e-08
 Reference value :  6.13950e-08
 Reference value :  6.15250e-08
 Reference value :  6.16550e-08
 Reference value :  6.17850e-08
 Reference value :  6.19250e-08
 Reference value :  6.20550e-08
 Reference value :  6.21850e-08
 Reference value :  6.23050e-08
 Reference value :  6.24350e-08
 Reference value :  6.25650e-08
 Reference value :  6.26950e-08
 Reference value :  6.28350e-08
 Reference value :  6.29650e-08
 Reference value :  6.31050e-08
 Reference value :  6.32350e-08
 Reference value :  6.33750e-08
 Reference value :  6.35050e-08
 Reference value :  6.36450e-08
 Reference value :  6.37850e-08
 Reference value :  6.39250e-08
 Reference value :  6.40550e-08
 Reference value :  6.41850e-08
 Reference value :  6.43250e-08
 Reference value :  6.44650e-08
 Reference value :  6.45950e-08
 Reference value :  6.47250e-08
 Reference value :  6.48650e-08
 Reference value :  6.49950e-08
 Reference value :  6.51350e-08
 Reference value :  6.52650e-08
 Reference value :  6.54050e-08
 Reference value :  6.55450e-08
 Reference value :  6.56850e-08
 Reference value :  6.58250e-08
 Reference value :  6.59650e-08
 Reference value :  6.61050e-08
 Reference value :  6.62450e-08
 Reference value :  6.63750e-08
 Reference value :  6.65150e-08
 Reference value :  6.66450e-08
 Reference value :  6.67850e-08
 Reference value :  6.69250e-08
 Reference value :  6.70550e-08
 Reference value :  6.71950e-08
 Reference value :  6.73250e-08
 Reference value :  6.74550e-08
 Reference value :  6.75850e-08
 Reference value :  6.77150e-08
 Reference value :  6.78550e-08
 Reference value :  6.79950e-08
 Reference value :  6.81350e-08
 Reference value :  6.82750e-08
 Reference value :  6.84150e-08
 Reference value :  6.85450e-08
 Reference value :  6.86750e-08
 Reference value :  6.88050e-08
 Reference value :  6.89450e-08
 Reference value :  6.90750e-08
 Reference value :  6.92050e-08
 Reference value :  6.93450e-08
 Reference value :  6.94750e-08
 Reference value :  6.96150e-08
 Reference value :  6.97450e-08
 Reference value :  6.98750e-08
 Reference value :  7.00050e-08
 Reference value :  7.01450e-08
 Reference value :  7.02750e-08
 Reference value :  7.04050e-08
 Reference value :  7.05450e-08
 Reference value :  7.06750e-08
 Reference value :  7.08050e-08
 Reference value :  7.09350e-08
 Reference value :  7.10650e-08
 Reference value :  7.11950e-08
 Reference value :  7.13250e-08
 Reference value :  7.14550e-08
 Reference value :  7.15850e-08
 Reference value :  7.17150e-08
 Reference value :  7.18450e-08
 Reference value :  7.19750e-08
 Reference value :  7.21150e-08
 Reference value :  7.22550e-08
 Reference value :  7.23950e-08
 Reference value :  7.25350e-08
 Reference value :  7.26650e-08
 Reference value :  7.28050e-08
 Reference value :  7.29450e-08
 Reference value :  7.30750e-08
 Reference value :  7.32150e-08
 Reference value :  7.33550e-08
 Reference value :  7.34850e-08
 Reference value :  7.36150e-08
 Reference value :  7.37550e-08
 Reference value :  7.38850e-08
 Reference value :  7.40150e-08
 Reference value :  7.41450e-08
 Reference value :  7.42850e-08
 Reference value :  7.44150e-08
 Reference value :  7.45550e-08
 Reference value :  7.46850e-08
 Reference value :  7.48150e-08
 Reference value :  7.49450e-08
 Reference value :  7.50750e-08
 Reference value :  7.52050e-08
 Reference value :  7.53350e-08
 Reference value :  7.54750e-08
 Reference value :  7.56050e-08
 Reference value :  7.57350e-08
 Reference value :  7.58750e-08
 Reference value :  7.60050e-08
 Reference value :  7.61350e-08
 Reference value :  7.62650e-08
 Reference value :  7.63950e-08
 Reference value :  7.65350e-08
 Reference value :  7.66650e-08
 Reference value :  7.68050e-08
 Reference value :  7.69350e-08
 Reference value :  7.70650e-08
 Reference value :  7.71950e-08
 Reference value :  7.73250e-08
 Reference value :  7.74550e-08
 Reference value :  7.75850e-08
 Reference value :  7.77150e-08
 Reference value :  7.78450e-08
 Reference value :  7.79750e-08
 Reference value :  7.81050e-08
 Reference value :  7.82350e-08
 Reference value :  7.83650e-08
 Reference value :  7.84950e-08
 Reference value :  7.86350e-08
 Reference value :  7.87750e-08
 Reference value :  7.89050e-08
 Reference value :  7.90350e-08
 Reference value :  7.91650e-08
 Reference value :  7.93050e-08
 Reference value :  7.94450e-08
 Reference value :  7.95850e-08
 Reference value :  7.97150e-08
 Reference value :  7.98550e-08
 Reference value :  7.99850e-08
 Reference value :  8.01250e-08
 Reference value :  8.02550e-08
 Reference value :  8.03950e-08
 Reference value :  8.05350e-08
 Reference value :  8.06650e-08
 Reference value :  8.08050e-08
 Reference value :  8.09450e-08
 Reference value :  8.10750e-08
 Reference value :  8.12150e-08
 Reference value :  8.13550e-08
 Reference value :  8.14950e-08
 Reference value :  8.16350e-08
 Reference value :  8.17750e-08
 Reference value :  8.19050e-08
 Reference value :  8.20350e-08
 Reference value :  8.21750e-08
 Reference value :  8.23150e-08
 Reference value :  8.24450e-08
 Reference value :  8.25750e-08
 Reference value :  8.27150e-08
 Reference value :  8.28450e-08
 Reference value :  8.29750e-08
 Reference value :  8.31050e-08
 Reference value :  8.32450e-08
 Reference value :  8.33750e-08
 Reference value :  8.35050e-08
 Reference value :  8.36350e-08
 Reference value :  8.37750e-08
 Reference value :  8.39050e-08
 Reference value :  8.40450e-08
 Reference value :  8.41850e-08
 Reference value :  8.43150e-08
 Reference value :  8.44550e-08
 Reference value :  8.45850e-08
 Reference value :  8.47150e-08
 Reference value :  8.48550e-08
 Reference value :  8.49850e-08
 Reference value :  8.51250e-08
 Reference value :  8.52550e-08
 Reference value :  8.53950e-08
 Reference value :  8.55350e-08
 Reference value :  8.56650e-08
 Reference value :  8.58050e-08
 Reference value :  8.59250e-08
 Reference value :  8.60550e-08
 Reference value :  8.61850e-08
 Reference value :  8.63150e-08
 Reference value :  8.64550e-08
 Reference value :  8.65850e-08
 Reference value :  8.67250e-08
 Reference value :  8.68650e-08
 Reference value :  8.69950e-08
 Reference value :  8.71250e-08
 Reference value :  8.72550e-08
 Reference value :  8.73950e-08
 Reference value :  8.75350e-08
 Reference value :  8.76750e-08
 Reference value :  8.78050e-08
 Reference value :  8.79450e-08
 Reference value :  8.80850e-08
 Reference value :  8.82150e-08
 Reference value :  8.83450e-08
 Reference value :  8.84850e-08
 Reference value :  8.86150e-08
 Reference value :  8.87450e-08
 Reference value :  8.88750e-08
 Reference value :  8.90150e-08
 Reference value :  8.91550e-08
 Reference value :  8.92850e-08
 Reference value :  8.94150e-08
 Reference value :  8.95450e-08
 Reference value :  8.96750e-08
 Reference value :  8.98050e-08
 Reference value :  8.99350e-08
 Reference value :  9.00650e-08
 Reference value :  9.01950e-08
 Reference value :  9.03250e-08
 Reference value :  9.04550e-08
 Reference value :  9.05850e-08
 Reference value :  9.07250e-08
 Reference value :  9.08550e-08
 Reference value :  9.09850e-08
 Reference value :  9.11250e-08
 Reference value :  9.12550e-08
 Reference value :  9.13950e-08
 Reference value :  9.15250e-08
 Reference value :  9.16550e-08
 Reference value :  9.17950e-08
 Reference value :  9.19250e-08
 Reference value :  9.20550e-08
 Reference value :  9.21850e-08
 Reference value :  9.23150e-08
 Reference value :  9.24550e-08
 Reference value :  9.25950e-08
 Reference value :  9.27250e-08
 Reference value :  9.28650e-08
 Reference value :  9.29950e-08
 Reference value :  9.31250e-08
 Reference value :  9.32550e-08
 Reference value :  9.33850e-08
 Reference value :  9.35150e-08
 Reference value :  9.36450e-08
 Reference value :  9.37750e-08
 Reference value :  9.39150e-08
 Reference value :  9.40550e-08
 Reference value :  9.41950e-08
 Reference value :  9.43350e-08
 Reference value :  9.44650e-08
 Reference value :  9.46050e-08
 Reference value :  9.47450e-08
 Reference value :  9.48750e-08
 Reference value :  9.50050e-08
 Reference value :  9.51450e-08
 Reference value :  9.52750e-08
 Reference value :  9.54050e-08
 Reference value :  9.55350e-08
 Reference value :  9.56650e-08
 Reference value :  9.58050e-08
 Reference value :  9.59350e-08
 Reference value :  9.60650e-08
 Reference value :  9.61950e-08
 Reference value :  9.63250e-08
 Reference value :  9.64650e-08
 Reference value :  9.65950e-08
 Reference value :  9.67250e-08
 Reference value :  9.68550e-08
 Reference value :  9.69850e-08
 Reference value :  9.71150e-08
 Reference value :  9.72450e-08
 Reference value :  9.73750e-08
 Reference value :  9.75050e-08
 Reference value :  9.76350e-08
 Reference value :  9.77650e-08
 Reference value :  9.78950e-08
 Reference value :  9.80250e-08
 Reference value :  9.81450e-08
 Reference value :  9.82850e-08
 Reference value :  9.84150e-08
 Reference value :  9.85450e-08
 Reference value :  9.86750e-08
 Reference value :  9.88050e-08
 Reference value :  9.89350e-08
 Reference value :  9.90650e-08
 Reference value :  9.91950e-08
 Reference value :  9.93250e-08
 Reference value :  9.94550e-08
 Reference value :  9.95850e-08
 Reference value :  9.97150e-08
 Reference value :  9.98450e-08
 Reference value :  9.99850e-08
 Reference value :  1.00055e-07
 Reference value :  1.00155e-07
 Reference value :  1.00255e-07
 Reference value :  1.00355e-07
 Reference value :  1.00455e-07
 Reference value :  1.00525e-07
 Reference value :  1.00645e-07
 Reference value :  1.00765e-07
 Reference value :  1.00865e-07
 Reference value :  1.00965e-07
 Reference value :  1.01065e-07
 Reference value :  1.01195e-07
 Reference value :  1.01325e-07
 Reference value :  1.01455e-07
 Reference value :  1.01595e-07
 Reference value :  1.01725e-07
 Reference value :  1.01865e-07
 Reference value :  1.01995e-07
 Reference value :  1.02125e-07
 Reference value :  1.02255e-07
 Reference value :  1.02385e-07
 Reference value :  1.02525e-07
 Reference value :  1.02655e-07
 Reference value :  1.02785e-07
 Reference value :  1.02915e-07
 Reference value :  1.03045e-07
 Reference value :  1.03185e-07
 Reference value :  1.03325e-07
 Reference value :  1.03455e-07
 Reference value :  1.03595e-07
 Reference value :  1.03735e-07
 Reference value :  1.03865e-07
 Reference value :  1.03995e-07
 Reference value :  1.04135e-07
 Reference value :  1.04275e-07
 Reference value :  1.04405e-07
 Reference value :  1.04545e-07
 Reference value :  1.04685e-07
 Reference value :  1.04825e-07
 Reference value :  1.04965e-07
 Reference value :  1.05105e-07
 Reference value :  1.05245e-07
 Reference value :  1.05385e-07
 Reference value :  1.05525e-07
 Reference value :  1.05655e-07
 Reference value :  1.05785e-07
 Reference value :  1.05915e-07
 Reference value :  1.06045e-07
 Reference value :  1.06185e-07
 Reference value :  1.06325e-07
 Reference value :  1.06455e-07
 Reference value :  1.06595e-07
 Reference value :  1.06725e-07
 Reference value :  1.06865e-07
 Reference value :  1.06995e-07
 Reference value :  1.07135e-07
 Reference value :  1.07275e-07
 Reference value :  1.07415e-07
 Reference value :  1.07555e-07
 Reference value :  1.07695e-07
 Reference value :  1.07825e-07
 Reference value :  1.07965e-07
 Reference value :  1.08105e-07
 Reference value :  1.08245e-07
 Reference value :  1.08385e-07
 Reference value :  1.08515e-07
 Reference value :  1.08645e-07
 Reference value :  1.08785e-07
 Reference value :  1.08915e-07
 Reference value :  1.09055e-07
 Reference value :  1.09215e-07
 Reference value :  1.09305e-07
 Reference value :  1.09435e-07
 Reference value :  1.09575e-07
 Reference value :  1.09705e-07
 Reference value :  1.09835e-07
 Reference value :  1.09965e-07
 Reference value :  1.10095e-07
 Reference value :  1.10225e-07
 Reference value :  1.10365e-07
 Reference value :  1.10495e-07
 Reference value :  1.10625e-07
 Reference value :  1.10765e-07
 Reference value :  1.10895e-07
 Reference value :  1.11025e-07
 Reference value :  1.11155e-07
 Reference value :  1.11295e-07
 Reference value :  1.11435e-07
 Reference value :  1.11575e-07
 Reference value :  1.11715e-07
 Reference value :  1.11855e-07
 Reference value :  1.11985e-07
 Reference value :  1.12115e-07
 Reference value :  1.12255e-07
 Reference value :  1.12395e-07
 Reference value :  1.12525e-07
 Reference value :  1.12665e-07
 Reference value :  1.12795e-07
 Reference value :  1.12935e-07
 Reference value :  1.13075e-07
 Reference value :  1.13205e-07
 Reference value :  1.13335e-07
 Reference value :  1.13465e-07
 Reference value :  1.13595e-07
 Reference value :  1.13725e-07
 Reference value :  1.13865e-07
 Reference value :  1.14005e-07
 Reference value :  1.14135e-07
 Reference value :  1.14275e-07
 Reference value :  1.14405e-07
 Reference value :  1.14545e-07
 Reference value :  1.14675e-07
 Reference value :  1.14815e-07
 Reference value :  1.14945e-07
 Reference value :  1.15075e-07
 Reference value :  1.15205e-07
 Reference value :  1.15335e-07
 Reference value :  1.15465e-07
 Reference value :  1.15595e-07
 Reference value :  1.15725e-07
 Reference value :  1.15855e-07
 Reference value :  1.15985e-07
 Reference value :  1.16125e-07
 Reference value :  1.16255e-07
 Reference value :  1.16395e-07
 Reference value :  1.16525e-07
 Reference value :  1.16655e-07
 Reference value :  1.16795e-07
 Reference value :  1.16925e-07
 Reference value :  1.17065e-07
 Reference value :  1.17205e-07
 Reference value :  1.17335e-07
 Reference value :  1.17475e-07
 Reference value :  1.17605e-07
 Reference value :  1.17745e-07
 Reference value :  1.17875e-07
 Reference value :  1.18005e-07
 Reference value :  1.18135e-07
 Reference value :  1.18265e-07
 Reference value :  1.18405e-07
 Reference value :  1.18535e-07
 Reference value :  1.18665e-07
 Reference value :  1.18795e-07
 Reference value :  1.18925e-07
 Reference value :  1.19055e-07
 Reference value :  1.19185e-07
 Reference value :  1.19315e-07
 Reference value :  1.19455e-07
 Reference value :  1.19595e-07
 Reference value :  1.19725e-07
 Reference value :  1.19855e-07
 Reference value :  1.19995e-07
 Reference value :  1.20125e-07
 Reference value :  1.20265e-07
 Reference value :  1.20395e-07
 Reference value :  1.20535e-07
 Reference value :  1.20665e-07
 Reference value :  1.20805e-07
 Reference value :  1.20945e-07
 Reference value :  1.21085e-07
 Reference value :  1.21215e-07
 Reference value :  1.21345e-07
 Reference value :  1.21485e-07
 Reference value :  1.21625e-07
 Reference value :  1.21755e-07
 Reference value :  1.21885e-07
 Reference value :  1.22015e-07
 Reference value :  1.22145e-07
 Reference value :  1.22275e-07
 Reference value :  1.22415e-07
 Reference value :  1.22545e-07
 Reference value :  1.22675e-07
 Reference value :  1.22805e-07
 Reference value :  1.22935e-07
 Reference value :  1.23065e-07
 Reference value :  1.23195e-07
 Reference value :  1.23325e-07
 Reference value :  1.23455e-07
 Reference value :  1.23585e-07
 Reference value :  1.23715e-07
 Reference value :  1.23855e-07
 Reference value :  1.23975e-07
 Reference value :  1.24105e-07
 Reference value :  1.24235e-07
 Reference value :  1.24365e-07
 Reference value :  1.24495e-07
 Reference value :  1.24625e-07
 Reference value :  1.24755e-07
 Reference value :  1.24885e-07
 Reference value :  1.25015e-07
 Reference value :  1.25145e-07
 Reference value :  1.25275e-07
 Reference value :  1.25405e-07
 Reference value :  1.25535e-07
 Reference value :  1.25665e-07
 Reference value :  1.25805e-07
 Reference value :  1.25945e-07
 Reference value :  1.26085e-07
 Reference value :  1.26225e-07
 Reference value :  1.26355e-07
 Reference value :  1.26485e-07
 Reference value :  1.26615e-07
 Reference value :  1.26745e-07
 Reference value :  1.26875e-07
 Reference value :  1.27005e-07
 Reference value :  1.27145e-07
 Reference value :  1.27275e-07
 Reference value :  1.27415e-07
 Reference value :  1.27545e-07
 Reference value :  1.27685e-07
 Reference value :  1.27825e-07
 Reference value :  1.27955e-07
 Reference value :  1.28085e-07
 Reference value :  1.28215e-07
 Reference value :  1.28345e-07
 Reference value :  1.28485e-07
 Reference value :  1.28615e-07
 Reference value :  1.28745e-07
 Reference value :  1.28885e-07
 Reference value :  1.29025e-07
 Reference value :  1.29155e-07
 Reference value :  1.29285e-07
 Reference value :  1.29415e-07
 Reference value :  1.29545e-07
 Reference value :  1.29685e-07
 Reference value :  1.29815e-07
 Reference value :  1.29945e-07
 Reference value :  1.30075e-07
 Reference value :  1.30215e-07
 Reference value :  1.30345e-07
 Reference value :  1.30475e-07
 Reference value :  1.30605e-07
 Reference value :  1.30745e-07
 Reference value :  1.30885e-07
 Reference value :  1.31015e-07
 Reference value :  1.31145e-07
 Reference value :  1.31275e-07
 Reference value :  1.31405e-07
 Reference value :  1.31535e-07
 Reference value :  1.31665e-07
 Reference value :  1.31805e-07
 Reference value :  1.31935e-07
 Reference value :  1.32075e-07
 Reference value :  1.32205e-07
 Reference value :  1.32335e-07
 Reference value :  1.32475e-07
 Reference value :  1.32605e-07
 Reference value :  1.32745e-07
 Reference value :  1.32875e-07
 Reference value :  1.33005e-07
 Reference value :  1.33135e-07
 Reference value :  1.33265e-07
 Reference value :  1.33345e-07
 Reference value :  1.33485e-07
 Reference value :  1.33625e-07
 Reference value :  1.33755e-07
 Reference value :  1.33895e-07
 Reference value :  1.34035e-07
 Reference value :  1.34165e-07
 Reference value :  1.34305e-07
 Reference value :  1.34445e-07
 Reference value :  1.34585e-07
 Reference value :  1.34725e-07
 Reference value :  1.34855e-07
 Reference value :  1.34995e-07
 Reference value :  1.35125e-07
 Reference value :  1.35265e-07
 Reference value :  1.35405e-07
 Reference value :  1.35535e-07
 Reference value :  1.35665e-07
 Reference value :  1.35795e-07
 Reference value :  1.35935e-07
 Reference value :  1.36075e-07
 Reference value :  1.36205e-07
 Reference value :  1.36335e-07
 Reference value :  1.36475e-07
 Reference value :  1.36605e-07
 Reference value :  1.36735e-07
 Reference value :  1.36865e-07
 Reference value :  1.36995e-07
 Reference value :  1.37125e-07
 Reference value :  1.37255e-07
 Reference value :  1.37385e-07
 Reference value :  1.37505e-07
 Reference value :  1.37635e-07
 Reference value :  1.37765e-07
 Reference value :  1.37895e-07
 Reference value :  1.38035e-07
 Reference value :  1.38155e-07
 Reference value :  1.38285e-07
 Reference value :  1.38425e-07
 Reference value :  1.38555e-07
 Reference value :  1.38685e-07
 Reference value :  1.38815e-07
 Reference value :  1.38945e-07
 Reference value :  1.39075e-07
 Reference value :  1.39215e-07
 Reference value :  1.39345e-07
 Reference value :  1.39475e-07
 Reference value :  1.39605e-07
 Reference value :  1.39745e-07
 Reference value :  1.39875e-07
 Reference value :  1.40005e-07
 Reference value :  1.40135e-07
 Reference value :  1.40265e-07
 Reference value :  1.40395e-07
 Reference value :  1.40503e-07
 Reference value :  1.40605e-07
 Reference value :  1.40705e-07
 Reference value :  1.40795e-07
 Reference value :  1.40895e-07
 Reference value :  1.40995e-07
 Reference value :  1.41055e-07
 Reference value :  1.41185e-07
 Reference value :  1.41325e-07
 Reference value :  1.41455e-07
 Reference value :  1.41595e-07
 Reference value :  1.41725e-07
 Reference value :  1.41855e-07
 Reference value :  1.41985e-07
 Reference value :  1.42115e-07
 Reference value :  1.42245e-07
 Reference value :  1.42375e-07
 Reference value :  1.42495e-07
 Reference value :  1.42625e-07
 Reference value :  1.42745e-07
 Reference value :  1.42865e-07
 Reference value :  1.42975e-07
 Reference value :  1.43085e-07
 Reference value :  1.43205e-07
 Reference value :  1.43325e-07
 Reference value :  1.43435e-07
 Reference value :  1.43555e-07
 Reference value :  1.43675e-07
 Reference value :  1.43785e-07
 Reference value :  1.43905e-07
 Reference value :  1.44015e-07
 Reference value :  1.44135e-07
 Reference value :  1.44255e-07
 Reference value :  1.44365e-07
 Reference value :  1.44485e-07
 Reference value :  1.44595e-07
 Reference value :  1.44715e-07
 Reference value :  1.44785e-07
 Reference value :  1.44895e-07
 Reference value :  1.45015e-07
 Reference value :  1.45135e-07
 Reference value :  1.45255e-07
 Reference value :  1.45375e-07
 Reference value :  1.45495e-07
 Reference value :  1.45605e-07
 Reference value :  1.45725e-07
 Reference value :  1.45835e-07
 Reference value :  1.45955e-07
 Reference value :  1.46075e-07
 Reference value :  1.46195e-07
 Reference value :  1.46315e-07
 Reference value :  1.46435e-07
 Reference value :  1.46555e-07
 Reference value :  1.46675e-07
 Reference value :  1.46795e-07
 Reference value :  1.46915e-07
 Reference value :  1.47025e-07
 Reference value :  1.47145e-07
 Reference value :  1.47265e-07
 Reference value :  1.47385e-07
 Reference value :  1.47495e-07
 Reference value :  1.47605e-07
 Reference value :  1.47725e-07
 Reference value :  1.47835e-07
 Reference value :  1.47955e-07
 Reference value :  1.48065e-07
 Reference value :  1.48185e-07
 Reference value :  1.48295e-07
 Reference value :  1.48415e-07
 Reference value :  1.48525e-07
 Reference value :  1.48645e-07
 Reference value :  1.48765e-07
 Reference value :  1.48875e-07
 Reference value :  1.48995e-07
 Reference value :  1.49105e-07
 Reference value :  1.49225e-07
 Reference value :  1.49335e-07
 Reference value :  1.49455e-07
 Reference value :  1.49565e-07
 Reference value :  1.49675e-07
 Reference value :  1.49795e-07
 Reference value :  1.49905e-07
 Reference value :  1.50025e-07
 Reference value :  1.50145e-07
 Reference value :  1.50265e-07
 Reference value :  1.50385e-07
 Reference value :  1.50505e-07
 Reference value :  1.50625e-07
 Reference value :  1.50745e-07
 Reference value :  1.50855e-07
 Reference value :  1.50975e-07
 Reference value :  1.51095e-07
 Reference value :  1.51215e-07
 Reference value :  1.51335e-07
 Reference value :  1.51395e-07
 Reference value :  1.51515e-07
 Reference value :  1.51645e-07
 Reference value :  1.51765e-07
 Reference value :  1.51885e-07
 Reference value :  1.52015e-07
 Reference value :  1.52135e-07
 Reference value :  1.52245e-07
 Reference value :  1.52365e-07
 Reference value :  1.52485e-07
 Reference value :  1.52605e-07
 Reference value :  1.52725e-07
 Reference value :  1.52835e-07
 Reference value :  1.52945e-07
 Reference value :  1.53065e-07
 Reference value :  1.53165e-07
 Reference value :  1.53285e-07
 Reference value :  1.53405e-07
 Reference value :  1.53515e-07
 Reference value :  1.53635e-07
 Reference value :  1.53755e-07
 Reference value :  1.53875e-07
 Reference value :  1.53985e-07
 Reference value :  1.54105e-07
 Reference value :  1.54225e-07
 Reference value :  1.54345e-07
 Reference value :  1.54465e-07
 Reference value :  1.54585e-07
 Reference value :  1.54705e-07
 Reference value :  1.54825e-07
 Reference value :  1.54945e-07
 Reference value :  1.55065e-07
 Reference value :  1.55185e-07
 Reference value :  1.55305e-07
 Reference value :  1.55425e-07
 Reference value :  1.55545e-07
 Reference value :  1.55655e-07
 Reference value :  1.55745e-07
 Reference value :  1.55845e-07
 Reference value :  1.55965e-07
 Reference value :  1.56085e-07
 Reference value :  1.56205e-07
 Reference value :  1.56325e-07
 Reference value :  1.56445e-07
 Reference value :  1.56565e-07
 Reference value :  1.56685e-07
 Reference value :  1.56795e-07
 Reference value :  1.56905e-07
 Reference value :  1.57015e-07
 Reference value :  1.57125e-07
 Reference value :  1.57235e-07
 Reference value :  1.57335e-07
 Reference value :  1.57435e-07
 Reference value :  1.57545e-07
 Reference value :  1.57665e-07
 Reference value :  1.57785e-07
 Reference value :  1.57905e-07
 Reference value :  1.58015e-07
 Reference value :  1.58135e-07
 Reference value :  1.58245e-07
 Reference value :  1.58345e-07
 Reference value :  1.58445e-07
 Reference value :  1.58535e-07
 Reference value :  1.58635e-07
 Reference value :  1.58745e-07
 Reference value :  1.58845e-07
 Reference value :  1.58945e-07
 Reference value :  1.59065e-07
 Reference value :  1.59185e-07
 Reference value :  1.59305e-07
 Reference value :  1.59405e-07
[...]
 Reference value :  9.29665e-07
 Reference value :  9.29775e-07
 Reference value :  9.29895e-07
 Reference value :  9.30015e-07
 Reference value :  9.30135e-07
 Reference value :  9.30255e-07
 Reference value :  9.30375e-07
 Reference value :  9.30495e-07
 Reference value :  9.30615e-07
 Reference value :  9.30725e-07
 Reference value :  9.30835e-07
 Reference value :  9.30955e-07
 Reference value :  9.31065e-07
 Reference value :  9.31195e-07
 Reference value :  9.31305e-07
 Reference value :  9.31415e-07
 Reference value :  9.31525e-07
 Reference value :  9.31645e-07
 Reference value :  9.31755e-07
 Reference value :  9.31875e-07
 Reference value :  9.31995e-07
 Reference value :  9.32105e-07
 Reference value :  9.32215e-07
 Reference value :  9.32325e-07
 Reference value :  9.32445e-07
 Reference value :  9.32555e-07
 Reference value :  9.32665e-07
 Reference value :  9.32765e-07
 Reference value :  9.32865e-07
 Reference value :  9.32965e-07
 Reference value :  9.33075e-07
 Reference value :  9.33185e-07
 Reference value :  9.33285e-07
 Reference value :  9.33395e-07
 Reference value :  9.33495e-07
 Reference value :  9.33605e-07
 Reference value :  9.33725e-07
 Reference value :  9.33815e-07
 Reference value :  9.33925e-07
 Reference value :  9.34035e-07
 Reference value :  9.34145e-07
 Reference value :  9.34245e-07
 Reference value :  9.34355e-07
 Reference value :  9.34465e-07
 Reference value :  9.34545e-07
 Reference value :  9.34645e-07
 Reference value :  9.34755e-07
 Reference value :  9.34865e-07
 Reference value :  9.34975e-07
 Reference value :  9.35085e-07
 Reference value :  9.35185e-07
 Reference value :  9.35295e-07
 Reference value :  9.35405e-07
 Reference value :  9.35505e-07
 Reference value :  9.35625e-07
 Reference value :  9.35735e-07
 Reference value :  9.35855e-07
 Reference value :  9.35975e-07
 Reference value :  9.36095e-07
 Reference value :  9.36205e-07
 Reference value :  9.36325e-07
 Reference value :  9.36445e-07
 Reference value :  9.36555e-07
 Reference value :  9.36675e-07
 Reference value :  9.36805e-07
 Reference value :  9.36915e-07
 Reference value :  9.37035e-07
 Reference value :  9.37145e-07
 Reference value :  9.37265e-07
 Reference value :  9.37385e-07
 Reference value :  9.37505e-07
 Reference value :  9.37625e-07
 Reference value :  9.37735e-07
 Reference value :  9.37855e-07
 Reference value :  9.37955e-07
 Reference value :  9.38075e-07
 Reference value :  9.38195e-07
 Reference value :  9.38315e-07
 Reference value :  9.38435e-07
 Reference value :  9.38555e-07
 Reference value :  9.38665e-07
 Reference value :  9.38785e-07
 Reference value :  9.38905e-07
 Reference value :  9.39025e-07
 Reference value :  9.39135e-07
 Reference value :  9.39255e-07
 Reference value :  9.39375e-07
 Reference value :  9.39495e-07
 Reference value :  9.39615e-07
 Reference value :  9.39725e-07
 Reference value :  9.39845e-07
 Reference value :  9.39965e-07
 Reference value :  9.40075e-07
 Reference value :  9.40195e-07
 Reference value :  9.40305e-07
 Reference value :  9.40425e-07
 Reference value :  9.40507e-07
 Reference value :  9.40595e-07
 Reference value :  9.40685e-07
 Reference value :  9.40765e-07
 Reference value :  9.40845e-07
 Reference value :  9.40925e-07
 Reference value :  9.41001e-07
 Reference value :  9.41075e-07
 Reference value :  9.41195e-07
 Reference value :  9.41305e-07
 Reference value :  9.41405e-07
 Reference value :  9.41525e-07
 Reference value :  9.41645e-07
 Reference value :  9.41765e-07
 Reference value :  9.41885e-07
 Reference value :  9.41995e-07
 Reference value :  9.42115e-07
 Reference value :  9.42225e-07
 Reference value :  9.42345e-07
 Reference value :  9.42465e-07
 Reference value :  9.42585e-07
 Reference value :  9.42705e-07
 Reference value :  9.42825e-07
 Reference value :  9.42945e-07
 Reference value :  9.43065e-07
 Reference value :  9.43185e-07
 Reference value :  9.43305e-07
 Reference value :  9.43425e-07
 Reference value :  9.43545e-07
 Reference value :  9.43665e-07
 Reference value :  9.43785e-07
 Reference value :  9.43905e-07
 Reference value :  9.44025e-07
 Reference value :  9.44145e-07
 Reference value :  9.44265e-07
 Reference value :  9.44385e-07
 Reference value :  9.44495e-07
 Reference value :  9.44615e-07
 Reference value :  9.44735e-07
 Reference value :  9.44845e-07
 Reference value :  9.44965e-07
 Reference value :  9.45085e-07
 Reference value :  9.45205e-07
 Reference value :  9.45325e-07
 Reference value :  9.45445e-07
 Reference value :  9.45565e-07
 Reference value :  9.45675e-07
 Reference value :  9.45785e-07
 Reference value :  9.45905e-07
 Reference value :  9.46025e-07
 Reference value :  9.46135e-07
 Reference value :  9.46255e-07
 Reference value :  9.46365e-07
 Reference value :  9.46485e-07
 Reference value :  9.46605e-07
 Reference value :  9.46725e-07
 Reference value :  9.46845e-07
 Reference value :  9.46965e-07
 Reference value :  9.47075e-07
 Reference value :  9.47205e-07
 Reference value :  9.47315e-07
 Reference value :  9.47445e-07
 Reference value :  9.47565e-07
 Reference value :  9.47685e-07
 Reference value :  9.47805e-07
 Reference value :  9.47925e-07
 Reference value :  9.48045e-07
 Reference value :  9.48165e-07
 Reference value :  9.48285e-07
 Reference value :  9.48405e-07
 Reference value :  9.48525e-07
 Reference value :  9.48645e-07
 Reference value :  9.48765e-07
 Reference value :  9.48885e-07
 Reference value :  9.49005e-07
 Reference value :  9.49125e-07
 Reference value :  9.49245e-07
 Reference value :  9.49355e-07
 Reference value :  9.49475e-07
 Reference value :  9.49595e-07
 Reference value :  9.49715e-07
 Reference value :  9.49835e-07
 Reference value :  9.49945e-07
 Reference value :  9.50055e-07
 Reference value :  9.50155e-07
 Reference value :  9.50265e-07
 Reference value :  9.50375e-07
 Reference value :  9.50475e-07
 Reference value :  9.50585e-07
 Reference value :  9.50695e-07
 Reference value :  9.50815e-07
 Reference value :  9.50925e-07
 Reference value :  9.51025e-07
 Reference value :  9.51135e-07
 Reference value :  9.51255e-07
 Reference value :  9.51355e-07
 Reference value :  9.51465e-07
 Reference value :  9.51575e-07
 Reference value :  9.51685e-07
 Reference value :  9.51795e-07
 Reference value :  9.51905e-07
 Reference value :  9.52005e-07
 Reference value :  9.52115e-07
 Reference value :  9.52215e-07
 Reference value :  9.52315e-07
 Reference value :  9.52425e-07
 Reference value :  9.52535e-07
 Reference value :  9.52635e-07
 Reference value :  9.52745e-07
 Reference value :  9.52845e-07
 Reference value :  9.52965e-07
 Reference value :  9.53075e-07
 Reference value :  9.53195e-07
 Reference value :  9.53305e-07
 Reference value :  9.53425e-07
 Reference value :  9.53545e-07
 Reference value :  9.53665e-07
 Reference value :  9.53785e-07
 Reference value :  9.53905e-07
 Reference value :  9.54015e-07
 Reference value :  9.54125e-07
 Reference value :  9.54245e-07
 Reference value :  9.54355e-07
 Reference value :  9.54475e-07
 Reference value :  9.54595e-07
 Reference value :  9.54715e-07
 Reference value :  9.54835e-07
 Reference value :  9.54955e-07
 Reference value :  9.55075e-07
 Reference value :  9.55195e-07
 Reference value :  9.55315e-07
 Reference value :  9.55435e-07
 Reference value :  9.55555e-07
 Reference value :  9.55675e-07
 Reference value :  9.55795e-07
 Reference value :  9.55915e-07
 Reference value :  9.56035e-07
 Reference value :  9.56155e-07
 Reference value :  9.56275e-07
 Reference value :  9.56395e-07
 Reference value :  9.56515e-07
 Reference value :  9.56625e-07
 Reference value :  9.56735e-07
 Reference value :  9.56845e-07
 Reference value :  9.56965e-07
 Reference value :  9.57075e-07
 Reference value :  9.57185e-07
 Reference value :  9.57285e-07
 Reference value :  9.57385e-07
 Reference value :  9.57495e-07
 Reference value :  9.57605e-07
 Reference value :  9.57715e-07
 Reference value :  9.57825e-07
 Reference value :  9.57935e-07
 Reference value :  9.58045e-07
 Reference value :  9.58145e-07
 Reference value :  9.58255e-07
 Reference value :  9.58375e-07
 Reference value :  9.58475e-07
 Reference value :  9.58595e-07
 Reference value :  9.58705e-07
 Reference value :  9.58815e-07
 Reference value :  9.58935e-07
 Reference value :  9.59055e-07
 Reference value :  9.59165e-07
 Reference value :  9.59275e-07
 Reference value :  9.59385e-07
 Reference value :  9.59485e-07
 Reference value :  9.59595e-07
 Reference value :  9.59705e-07
 Reference value :  9.59805e-07
 Reference value :  9.59925e-07
 Reference value :  9.60045e-07
 Reference value :  9.60165e-07
 Reference value :  9.60285e-07
 Reference value :  9.60405e-07
 Reference value :  9.60525e-07
 Reference value :  9.60645e-07
 Reference value :  9.60765e-07
 Reference value :  9.60885e-07
 Reference value :  9.61005e-07
 Reference value :  9.61125e-07
 Reference value :  9.61245e-07
 Reference value :  9.61365e-07
 Reference value :  9.61475e-07
 Reference value :  9.61595e-07
 Reference value :  9.61665e-07
 Reference value :  9.61715e-07
 Reference value :  9.61775e-07
 Reference value :  9.61895e-07
 Reference value :  9.62015e-07
 Reference value :  9.62135e-07
 Reference value :  9.62245e-07
 Reference value :  9.62365e-07
 Reference value :  9.62485e-07
 Reference value :  9.62605e-07
 Reference value :  9.62725e-07
 Reference value :  9.62845e-07
 Reference value :  9.62965e-07
 Reference value :  9.63075e-07
 Reference value :  9.63185e-07
 Reference value :  9.63305e-07
 Reference value :  9.63425e-07
 Reference value :  9.63545e-07
 Reference value :  9.63665e-07
 Reference value :  9.63775e-07
 Reference value :  9.63895e-07
 Reference value :  9.64005e-07
 Reference value :  9.64125e-07
 Reference value :  9.64245e-07
 Reference value :  9.64355e-07
 Reference value :  9.64475e-07
 Reference value :  9.64595e-07
 Reference value :  9.64705e-07
 Reference value :  9.64825e-07
 Reference value :  9.64945e-07
 Reference value :  9.65055e-07
 Reference value :  9.65175e-07
 Reference value :  9.65295e-07
 Reference value :  9.65415e-07
 Reference value :  9.65535e-07
 Reference value :  9.65655e-07
 Reference value :  9.65775e-07
 Reference value :  9.65895e-07
 Reference value :  9.66015e-07
 Reference value :  9.66135e-07
 Reference value :  9.66255e-07
 Reference value :  9.66375e-07
 Reference value :  9.66495e-07
 Reference value :  9.66615e-07
 Reference value :  9.66735e-07
 Reference value :  9.66855e-07
 Reference value :  9.66975e-07
 Reference value :  9.67095e-07
 Reference value :  9.67215e-07
 Reference value :  9.67335e-07
 Reference value :  9.67455e-07
 Reference value :  9.67565e-07
 Reference value :  9.67665e-07
 Reference value :  9.67785e-07
 Reference value :  9.67905e-07
 Reference value :  9.68025e-07
 Reference value :  9.68145e-07
 Reference value :  9.68255e-07
 Reference value :  9.68375e-07
 Reference value :  9.68495e-07
 Reference value :  9.68615e-07
 Reference value :  9.68735e-07
 Reference value :  9.68855e-07
 Reference value :  9.68975e-07
 Reference value :  9.69095e-07
 Reference value :  9.69215e-07
 Reference value :  9.69335e-07
 Reference value :  9.69455e-07
 Reference value :  9.69575e-07
 Reference value :  9.69695e-07
 Reference value :  9.69815e-07
 Reference value :  9.69945e-07
 Reference value :  9.70065e-07
 Reference value :  9.70185e-07
 Reference value :  9.70295e-07
 Reference value :  9.70415e-07
 Reference value :  9.70535e-07
 Reference value :  9.70655e-07
 Reference value :  9.70765e-07
 Reference value :  9.70885e-07
 Reference value :  9.70995e-07
 Reference value :  9.71115e-07
 Reference value :  9.71235e-07
 Reference value :  9.71355e-07
 Reference value :  9.71475e-07
 Reference value :  9.71595e-07
 Reference value :  9.71715e-07
 Reference value :  9.71835e-07
 Reference value :  9.71955e-07
 Reference value :  9.72085e-07
 Reference value :  9.72205e-07
 Reference value :  9.72325e-07
 Reference value :  9.72445e-07
 Reference value :  9.72575e-07
 Reference value :  9.72685e-07
 Reference value :  9.72805e-07
 Reference value :  9.72925e-07
 Reference value :  9.73045e-07
 Reference value :  9.73165e-07
 Reference value :  9.73285e-07
 Reference value :  9.73405e-07
 Reference value :  9.73525e-07
 Reference value :  9.73655e-07
 Reference value :  9.73775e-07
 Reference value :  9.73895e-07
 Reference value :  9.74015e-07
 Reference value :  9.74135e-07
 Reference value :  9.74245e-07
 Reference value :  9.74365e-07
 Reference value :  9.74485e-07
 Reference value :  9.74605e-07
 Reference value :  9.74735e-07
 Reference value :  9.74845e-07
 Reference value :  9.74965e-07
 Reference value :  9.75085e-07
 Reference value :  9.75195e-07
 Reference value :  9.75315e-07
 Reference value :  9.75435e-07
 Reference value :  9.75555e-07
 Reference value :  9.75675e-07
 Reference value :  9.75795e-07
 Reference value :  9.75915e-07
 Reference value :  9.76035e-07
 Reference value :  9.76155e-07
 Reference value :  9.76285e-07
 Reference value :  9.76405e-07
 Reference value :  9.76525e-07
 Reference value :  9.76645e-07
 Reference value :  9.76765e-07
 Reference value :  9.76875e-07
 Reference value :  9.77005e-07
 Reference value :  9.77125e-07
 Reference value :  9.77245e-07
 Reference value :  9.77365e-07
 Reference value :  9.77485e-07
 Reference value :  9.77605e-07
 Reference value :  9.77725e-07
 Reference value :  9.77845e-07
 Reference value :  9.77965e-07
 Reference value :  9.78085e-07
 Reference value :  9.78205e-07
 Reference value :  9.78325e-07
 Reference value :  9.78445e-07
 Reference value :  9.78565e-07
 Reference value :  9.78685e-07
 Reference value :  9.78805e-07
 Reference value :  9.78925e-07
 Reference value :  9.79045e-07
 Reference value :  9.79165e-07
 Reference value :  9.79285e-07
 Reference value :  9.79395e-07
 Reference value :  9.79515e-07
 Reference value :  9.79635e-07
 Reference value :  9.79745e-07
 Reference value :  9.79855e-07
 Reference value :  9.79975e-07
 Reference value :  9.80095e-07
 Reference value :  9.80215e-07
 Reference value :  9.80335e-07
 Reference value :  9.80455e-07
 Reference value :  9.80575e-07
 Reference value :  9.80695e-07
 Reference value :  9.80815e-07
 Reference value :  9.80935e-07
 Reference value :  9.81045e-07
 Reference value :  9.81165e-07
 Reference value :  9.81285e-07
 Reference value :  9.81405e-07
 Reference value :  9.81525e-07
 Reference value :  9.81645e-07
 Reference value :  9.81765e-07
 Reference value :  9.81885e-07
 Reference value :  9.82005e-07
 Reference value :  9.82125e-07
 Reference value :  9.82245e-07
 Reference value :  9.82365e-07
 Reference value :  9.82485e-07
 Reference value :  9.82605e-07
 Reference value :  9.82725e-07
 Reference value :  9.82845e-07
 Reference value :  9.82965e-07
 Reference value :  9.83085e-07
 Reference value :  9.83205e-07
 Reference value :  9.83325e-07
 Reference value :  9.83435e-07
 Reference value :  9.83535e-07
 Reference value :  9.83615e-07
 Reference value :  9.83735e-07
 Reference value :  9.83845e-07
 Reference value :  9.83965e-07
 Reference value :  9.84085e-07
 Reference value :  9.84205e-07
 Reference value :  9.84325e-07
 Reference value :  9.84445e-07
 Reference value :  9.84565e-07
 Reference value :  9.84675e-07
 Reference value :  9.84785e-07
 Reference value :  9.84915e-07
 Reference value :  9.85035e-07
 Reference value :  9.85145e-07
 Reference value :  9.85255e-07
 Reference value :  9.85375e-07
 Reference value :  9.85495e-07
 Reference value :  9.85615e-07
 Reference value :  9.85725e-07
 Reference value :  9.85845e-07
 Reference value :  9.85975e-07
 Reference value :  9.86085e-07
 Reference value :  9.86205e-07
 Reference value :  9.86325e-07
 Reference value :  9.86445e-07
 Reference value :  9.86555e-07
 Reference value :  9.86675e-07
 Reference value :  9.86795e-07
 Reference value :  9.86915e-07
 Reference value :  9.87025e-07
 Reference value :  9.87115e-07
 Reference value :  9.87215e-07
 Reference value :  9.87315e-07
 Reference value :  9.87425e-07
 Reference value :  9.87535e-07
 Reference value :  9.87645e-07
 Reference value :  9.87735e-07
 Reference value :  9.87845e-07
 Reference value :  9.87945e-07
 Reference value :  9.88055e-07
 Reference value :  9.88165e-07
 Reference value :  9.88255e-07
 Reference value :  9.88365e-07
 Reference value :  9.88475e-07
 Reference value :  9.88575e-07
 Reference value :  9.88685e-07
 Reference value :  9.88795e-07
 Reference value :  9.88905e-07
 Reference value :  9.88995e-07
 Reference value :  9.89095e-07
 Reference value :  9.89195e-07
 Reference value :  9.89305e-07
 Reference value :  9.89405e-07
 Reference value :  9.89505e-07
 Reference value :  9.89615e-07
 Reference value :  9.89715e-07
 Reference value :  9.89825e-07
 Reference value :  9.89935e-07
 Reference value :  9.90035e-07
 Reference value :  9.90145e-07
 Reference value :  9.90255e-07
 Reference value :  9.90365e-07
 Reference value :  9.90475e-07
 Reference value :  9.90595e-07
 Reference value :  9.90715e-07
 Reference value :  9.90835e-07
 Reference value :  9.90945e-07
 Reference value :  9.91055e-07
 Reference value :  9.91165e-07
 Reference value :  9.91275e-07
 Reference value :  9.91385e-07
 Reference value :  9.91495e-07
 Reference value :  9.91605e-07
 Reference value :  9.91715e-07
 Reference value :  9.91835e-07
 Reference value :  9.91955e-07
 Reference value :  9.92075e-07
 Reference value :  9.92195e-07
 Reference value :  9.92315e-07
 Reference value :  9.92435e-07
 Reference value :  9.92555e-07
 Reference value :  9.92675e-07
 Reference value :  9.92795e-07
 Reference value :  9.92915e-07
 Reference value :  9.93035e-07
 Reference value :  9.93105e-07
 Reference value :  9.93235e-07
 Reference value :  9.93355e-07
 Reference value :  9.93475e-07
 Reference value :  9.93595e-07
 Reference value :  9.93695e-07
 Reference value :  9.93815e-07
 Reference value :  9.93925e-07
 Reference value :  9.94045e-07
 Reference value :  9.94175e-07
 Reference value :  9.94295e-07
 Reference value :  9.94415e-07
 Reference value :  9.94525e-07
 Reference value :  9.94645e-07
 Reference value :  9.94755e-07
 Reference value :  9.94885e-07
 Reference value :  9.94995e-07
 Reference value :  9.95115e-07
 Reference value :  9.95235e-07
 Reference value :  9.95355e-07
 Reference value :  9.95475e-07
 Reference value :  9.95595e-07
 Reference value :  9.95715e-07
 Reference value :  9.95835e-07
 Reference value :  9.95945e-07
 Reference value :  9.96065e-07
 Reference value :  9.96185e-07
 Reference value :  9.96305e-07
 Reference value :  9.96425e-07
 Reference value :  9.96545e-07
 Reference value :  9.96665e-07
 Reference value :  9.96785e-07
 Reference value :  9.96895e-07
 Reference value :  9.97015e-07
 Reference value :  9.97135e-07
 Reference value :  9.97245e-07
 Reference value :  9.97365e-07
 Reference value :  9.97475e-07
 Reference value :  9.97595e-07
 Reference value :  9.97705e-07
 Reference value :  9.97815e-07
 Reference value :  9.97925e-07
 Reference value :  9.98045e-07
 Reference value :  9.98165e-07
 Reference value :  9.98285e-07
 Reference value :  9.98405e-07
 Reference value :  9.98525e-07
 Reference value :  9.98645e-07
 Reference value :  9.98765e-07
 Reference value :  9.98885e-07
 Reference value :  9.99005e-07
 Reference value :  9.99115e-07
 Reference value :  9.99235e-07
 Reference value :  9.99355e-07
 Reference value :  9.99465e-07
 Reference value :  9.99585e-07
 Reference value :  9.99705e-07
 Reference value :  9.99825e-07
 Reference value :  9.99945e-07
No. of Data Rows : 100140

Total analysis time (seconds) = 307.97

Total elapsed time (seconds) = 308.562 

Total DRAM available = 15716.934 MB.
DRAM currently available = 10121.277 MB.
Maximum ngspice program size =   96.082 MB.
Current ngspice program size =   34.387 MB.

Shared ngspice pages =    8.125 MB.
Text (code) pages =    5.715 MB.
Stack = 0 bytes.
Library pages =   83.633 MB.

